data_image0
_cell_length_a       19.5464
_cell_length_b       6.57518
_cell_length_c       17.037
_cell_angle_alpha    89.9055
_cell_angle_beta     89.9512
_cell_angle_gamma    89.8205

_symmetry_space_group_name_H-M    "P 1"
_symmetry_int_tables_number       1

loop_
  _symmetry_equiv_pos_as_xyz
  'x, y, z'

loop_
  _atom_site_label
  _atom_site_occupancy
  _atom_site_fract_x
  _atom_site_fract_y
  _atom_site_fract_z
  _atom_site_thermal_displace_type
  _atom_site_B_iso_or_equiv
  _atom_site_type_symbol
  O1       1.0000 0.31586  0.66306  0.32505  Biso   1.000  O
  O2       1.0000 0.19102  0.32014  0.33541  Biso   1.000  O
  O3       1.0000 0.31239  0.81254  0.16789  Biso   1.000  O
  O4       1.0000 0.18149  0.17154  0.17563  Biso   1.000  O
  O5       1.0000 0.68790  0.33565  0.66943  Biso   1.000  O
  O6       1.0000 0.81269  0.68115  0.66912  Biso   1.000  O
  O7       1.0000 0.68393  0.18523  0.82798  Biso   1.000  O
  O8       1.0000 0.81276  0.83210  0.82909  Biso   1.000  O
  O9       1.0000 0.33322  0.31865  0.32018  Biso   1.000  O
  O10      1.0000 0.17001  0.66094  0.32103  Biso   1.000  O
  O11      1.0000 0.32616  0.15861  0.17232  Biso   1.000  O
  O12      1.0000 0.17009  0.82466  0.17545  Biso   1.000  O
  O13      1.0000 0.67006  0.67972  0.67551  Biso   1.000  O
  O14      1.0000 0.83277  0.33868  0.68000  Biso   1.000  O
  O15      1.0000 0.66909  0.84014  0.82088  Biso   1.000  O
  O16      1.0000 0.82665  0.17826  0.82768  Biso   1.000  O
  C1       1.0000 0.34551  0.49808  0.34410  Biso   1.000  C
  C2       1.0000 0.15955  0.48527  0.35014  Biso   1.000  C
  C3       1.0000 0.33965  0.98006  0.14789  Biso   1.000  C
  C4       1.0000 0.15530  0.00475  0.15360  Biso   1.000  C
  C5       1.0000 0.65860  0.50099  0.65020  Biso   1.000  C
  C6       1.0000 0.84377  0.51629  0.65314  Biso   1.000  C
  C7       1.0000 0.65522  0.01820  0.84561  Biso   1.000  C
  C8       1.0000 0.84051  0.99802  0.85011  Biso   1.000  C
  C9       1.0000 0.40089  0.52454  0.40444  Biso   1.000  C
  C10      1.0000 0.10431  0.46692  0.41125  Biso   1.000  C
  C11      1.0000 0.39399  0.96027  0.08593  Biso   1.000  C
  C12      1.0000 0.10065  0.02867  0.09215  Biso   1.000  C
  C13      1.0000 0.60485  0.47658  0.58790  Biso   1.000  C
  C14      1.0000 0.89913  0.53855  0.59246  Biso   1.000  C
  C15      1.0000 0.59882  0.03774  0.90518  Biso   1.000  C
  C16      1.0000 0.89551  0.97308  0.91104  Biso   1.000  C
  C17      1.0000 0.40130  0.70749  0.44837  Biso   1.000  C
  C18      1.0000 0.10332  0.28960  0.45866  Biso   1.000  C
  C19      1.0000 0.39599  0.78192  0.03932  Biso   1.000  C
  C20      1.0000 0.09956  0.20987  0.04698  Biso   1.000  C
  C21      1.0000 0.60490  0.29447  0.54340  Biso   1.000  C
  C22      1.0000 0.89998  0.71643  0.54530  Biso   1.000  C
  C23      1.0000 0.59568  0.21779  0.95064  Biso   1.000  C
  C24      1.0000 0.89672  0.79169  0.95610  Biso   1.000  C
  C25      1.0000 0.45139  0.74080  0.50409  Biso   1.000  C
  C26      1.0000 0.05308  0.26429  0.51496  Biso   1.000  C
  C27      1.0000 0.44675  0.75687  0.98350  Biso   1.000  C
  C28      1.0000 0.04939  0.24048  0.99097  Biso   1.000  C
  C29      1.0000 0.55541  0.26246  0.48690  Biso   1.000  C
  C30      1.0000 0.95017  0.74218  0.48890  Biso   1.000  C
  C31      1.0000 0.54512  0.24223  0.00661  Biso   1.000  C
  C32      1.0000 0.94698  0.76168  0.01203  Biso   1.000  C
  C33      1.0000 0.50327  0.40914  0.47304  Biso   1.000  C
  C34      1.0000 0.00220  0.59336  0.47784  Biso   1.000  C
  C35      1.0000 0.49490  0.08984  0.01862  Biso   1.000  C
  C36      1.0000 0.99876  0.90924  0.02436  Biso   1.000  C
  C37      1.0000 0.50347  0.59398  0.51793  Biso   1.000  C
  C38      1.0000 0.00134  0.41370  0.52595  Biso   1.000  C
  C39      1.0000 0.49754  0.90825  0.97195  Biso   1.000  C
  C40      1.0000 0.99769  0.09268  0.97842  Biso   1.000  C
  C41      1.0000 0.45084  0.37708  0.41673  Biso   1.000  C
  C42      1.0000 0.05485  0.61732  0.42104  Biso   1.000  C
  C43      1.0000 0.44225  0.11241  0.07531  Biso   1.000  C
  C44      1.0000 0.05148  0.87982  0.08056  Biso   1.000  C
  C45      1.0000 0.55544  0.62501  0.57479  Biso   1.000  C
  C46      1.0000 0.94874  0.38905  0.58258  Biso   1.000  C
  C47      1.0000 0.55075  0.88490  0.91590  Biso   1.000  C
  C48      1.0000 0.94485  0.12178  0.92235  Biso   1.000  C
  Al1      1.0000 0.24421  0.74125  0.24811  Biso   1.000  Al
  Al2      1.0000 0.25574  0.24070  0.25079  Biso   1.000  Al
  Al3      1.0000 0.75559  0.25889  0.75090  Biso   1.000  Al
  Al4      1.0000 0.74375  0.75907  0.74904  Biso   1.000  Al
  O17      1.0000 0.24985  0.48962  0.21084  Biso   1.000  O
  O18      1.0000 0.25014  0.98976  0.28865  Biso   1.000  O
  O19      1.0000 0.74954  0.50961  0.78880  Biso   1.000  O
  O20      1.0000 0.75038  0.00993  0.71098  Biso   1.000  O
  H1       1.0000 0.45000  0.23718  0.38272  Biso   1.000  H
  H2       1.0000 0.05637  0.75292  0.38432  Biso   1.000  H
  H3       1.0000 0.43970  0.24820  0.11162  Biso   1.000  H
  H4       1.0000 0.05314  0.74143  0.11559  Biso   1.000  H
  H5       1.0000 0.55603  0.76442  0.60917  Biso   1.000  H
  H6       1.0000 0.94753  0.25330  0.61918  Biso   1.000  H
  H7       1.0000 0.55377  0.74748  0.88060  Biso   1.000  H
  H8       1.0000 0.94318  0.26006  0.88723  Biso   1.000  H
  H9       1.0000 0.55544  0.12264  0.45269  Biso   1.000  H
  H10      1.0000 0.95063  0.87850  0.45251  Biso   1.000  H
  H11      1.0000 0.54250  0.38017  0.04181  Biso   1.000  H
  H12      1.0000 0.94791  0.62298  0.04705  Biso   1.000  H
  H13      1.0000 0.45177  0.88124  0.53785  Biso   1.000  H
  H14      1.0000 0.05211  0.12801  0.55132  Biso   1.000  H
  H15      1.0000 0.44885  0.61937  0.94796  Biso   1.000  H
  H16      1.0000 0.04849  0.37977  0.95626  Biso   1.000  H
  H17      1.0000 0.36170  0.81997  0.43650  Biso   1.000  H
  H18      1.0000 0.14244  0.17443  0.44888  Biso   1.000  H
  H19      1.0000 0.35731  0.66593  0.04911  Biso   1.000  H
  H20      1.0000 0.13857  0.32367  0.05819  Biso   1.000  H
  H21      1.0000 0.64422  0.18145  0.55583  Biso   1.000  H
  H22      1.0000 0.86059  0.83094  0.55506  Biso   1.000  H
  H23      1.0000 0.63370  0.33490  0.94007  Biso   1.000  H
  H24      1.0000 0.85761  0.67789  0.94515  Biso   1.000  H
